data_image0
_chemical_formula_structural       Cu192
_chemical_formula_sum              "Cu192"
_cell_length_a       23.1365
_cell_length_b       23.1365
_cell_length_c       7.08409
_cell_angle_alpha    90
_cell_angle_beta     90
_cell_angle_gamma    120

_space_group_name_H-M_alt    "P 1"
_space_group_IT_number       1

loop_
  _space_group_symop_operation_xyz
  'x, y, z'

loop_
  _atom_site_type_symbol
  _atom_site_label
  _atom_site_symmetry_multiplicity
  _atom_site_fract_x
  _atom_site_fract_y
  _atom_site_fract_z
  _atom_site_occupancy
  Cu  Cu1       1.0  0.12500  0.00000  0.00000  1.0000
  Cu  Cu2       1.0  0.00000  0.12500  0.00000  1.0000
  Cu  Cu3       1.0  0.12500  0.12500  0.00000  1.0000
  Cu  Cu4       1.0  0.12500  0.25000  0.00000  1.0000
  Cu  Cu5       1.0  0.00000  0.00000  0.00000  1.0000
  Cu  Cu6       1.0  0.04167  0.08333  0.33333  1.0000
  Cu  Cu7       1.0  0.00000  0.37500  1.00000  1.0000
  Cu  Cu8       1.0  0.12500  0.37500  0.00000  1.0000
  Cu  Cu9       1.0  0.12500  0.50000  1.00000  1.0000
  Cu  Cu10      1.0  0.00000  0.25000  0.00000  1.0000
  Cu  Cu11      1.0  0.04167  0.20833  0.33333  1.0000
  Cu  Cu12      1.0  0.04167  0.33333  0.33333  1.0000
  Cu  Cu13      1.0  0.00000  0.62500  0.00000  1.0000
  Cu  Cu14      1.0  0.12500  0.62500  0.00000  1.0000
  Cu  Cu15      1.0  0.12500  0.75000  0.00000  1.0000
  Cu  Cu16      1.0  0.00000  0.50000  0.00000  1.0000
  Cu  Cu17      1.0  0.04167  0.45833  0.33333  1.0000
  Cu  Cu18      1.0  0.04167  0.58333  0.33333  1.0000
  Cu  Cu19      1.0  0.00000  0.87500  1.00000  1.0000
  Cu  Cu20      1.0  0.12500  0.87500  0.00000  1.0000
  Cu  Cu21      1.0  0.00000  0.75000  0.00000  1.0000
  Cu  Cu22      1.0  0.04167  0.70833  0.33333  1.0000
  Cu  Cu23      1.0  0.04167  0.83333  0.33333  1.0000
  Cu  Cu24      1.0  0.04167  0.95833  0.33333  1.0000
  Cu  Cu25      1.0  0.37500  0.00000  0.00000  1.0000
  Cu  Cu26      1.0  0.25000  0.12500  0.00000  1.0000
  Cu  Cu27      1.0  0.37500  0.12500  0.00000  1.0000
  Cu  Cu28      1.0  0.37500  0.25000  0.00000  1.0000
  Cu  Cu29      1.0  0.25000  0.00000  0.00000  1.0000
  Cu  Cu30      1.0  0.29167  0.08333  0.33333  1.0000
  Cu  Cu31      1.0  0.25000  0.37500  0.00000  1.0000
  Cu  Cu32      1.0  0.37500  0.37500  0.00000  1.0000
  Cu  Cu33      1.0  0.37500  0.50000  0.00000  1.0000
  Cu  Cu34      1.0  0.25000  0.25000  0.00000  1.0000
  Cu  Cu35      1.0  0.16667  0.20833  0.33333  1.0000
  Cu  Cu36      1.0  0.29167  0.20833  0.33333  1.0000
  Cu  Cu37      1.0  0.29167  0.33333  0.33333  1.0000
  Cu  Cu38      1.0  0.16667  0.08333  0.33333  1.0000
  Cu  Cu39      1.0  0.08333  0.04167  0.66667  1.0000
  Cu  Cu40      1.0  0.20833  0.04167  0.66667  1.0000
  Cu  Cu41      1.0  0.20833  0.16667  0.66667  1.0000
  Cu  Cu42      1.0  0.25000  0.62500  1.00000  1.0000
  Cu  Cu43      1.0  0.37500  0.62500  0.00000  1.0000
  Cu  Cu44      1.0  0.37500  0.75000  1.00000  1.0000
  Cu  Cu45      1.0  0.25000  0.50000  0.00000  1.0000
  Cu  Cu46      1.0  0.16667  0.45833  0.33333  1.0000
  Cu  Cu47      1.0  0.29167  0.45833  0.33333  1.0000
  Cu  Cu48      1.0  0.29167  0.58333  0.33333  1.0000
  Cu  Cu49      1.0  0.16667  0.33333  0.33333  1.0000
  Cu  Cu50      1.0  0.08333  0.29167  0.66667  1.0000
  Cu  Cu51      1.0  0.20833  0.29167  0.66667  1.0000
  Cu  Cu52      1.0  0.20833  0.41667  0.66667  1.0000
  Cu  Cu53      1.0  0.08333  0.16667  0.66667  1.0000
  Cu  Cu54      1.0  0.25000  0.87500  0.00000  1.0000
  Cu  Cu55      1.0  0.37500  0.87500  0.00000  1.0000
  Cu  Cu56      1.0  0.25000  0.75000  0.00000  1.0000
  Cu  Cu57      1.0  0.16667  0.70833  0.33333  1.0000
  Cu  Cu58      1.0  0.29167  0.70833  0.33333  1.0000
  Cu  Cu59      1.0  0.29167  0.83333  0.33333  1.0000
  Cu  Cu60      1.0  0.16667  0.58333  0.33333  1.0000
  Cu  Cu61      1.0  0.08333  0.54167  0.66667  1.0000
  Cu  Cu62      1.0  0.20833  0.54167  0.66667  1.0000
  Cu  Cu63      1.0  0.20833  0.66667  0.66667  1.0000
  Cu  Cu64      1.0  0.08333  0.41667  0.66667  1.0000
  Cu  Cu65      1.0  0.16667  0.95833  0.33333  1.0000
  Cu  Cu66      1.0  0.29167  0.95833  0.33333  1.0000
  Cu  Cu67      1.0  0.16667  0.83333  0.33333  1.0000
  Cu  Cu68      1.0  0.08333  0.79167  0.66667  1.0000
  Cu  Cu69      1.0  0.20833  0.79167  0.66667  1.0000
  Cu  Cu70      1.0  0.20833  0.91667  0.66667  1.0000
  Cu  Cu71      1.0  0.08333  0.66667  0.66667  1.0000
  Cu  Cu72      1.0  0.08333  0.91667  0.66667  1.0000
  Cu  Cu73      1.0  0.62500  0.00000  0.00000  1.0000
  Cu  Cu74      1.0  0.50000  0.12500  0.00000  1.0000
  Cu  Cu75      1.0  0.62500  0.12500  0.00000  1.0000
  Cu  Cu76      1.0  0.62500  0.25000  0.00000  1.0000
  Cu  Cu77      1.0  0.50000  0.00000  0.00000  1.0000
  Cu  Cu78      1.0  0.54167  0.08333  0.33333  1.0000
  Cu  Cu79      1.0  0.50000  0.37500  0.00000  1.0000
  Cu  Cu80      1.0  0.62500  0.37500  0.00000  1.0000
  Cu  Cu81      1.0  0.62500  0.50000  0.00000  1.0000
  Cu  Cu82      1.0  0.50000  0.25000  0.00000  1.0000
  Cu  Cu83      1.0  0.41667  0.20833  0.33333  1.0000
  Cu  Cu84      1.0  0.54167  0.20833  0.33333  1.0000
  Cu  Cu85      1.0  0.54167  0.33333  0.33333  1.0000
  Cu  Cu86      1.0  0.41667  0.08333  0.33333  1.0000
  Cu  Cu87      1.0  0.33333  0.04167  0.66667  1.0000
  Cu  Cu88      1.0  0.45833  0.04167  0.66667  1.0000
  Cu  Cu89      1.0  0.45833  0.16667  0.66667  1.0000
  Cu  Cu90      1.0  0.50000  0.62500  0.00000  1.0000
  Cu  Cu91      1.0  0.62500  0.62500  0.00000  1.0000
  Cu  Cu92      1.0  0.62500  0.75000  0.00000  1.0000
  Cu  Cu93      1.0  0.50000  0.50000  0.00000  1.0000
  Cu  Cu94      1.0  0.41667  0.45833  0.33333  1.0000
  Cu  Cu95      1.0  0.54167  0.45833  0.33333  1.0000
  Cu  Cu96      1.0  0.54167  0.58333  0.33333  1.0000
  Cu  Cu97      1.0  0.41667  0.33333  0.33333  1.0000
  Cu  Cu98      1.0  0.33333  0.29167  0.66667  1.0000
  Cu  Cu99      1.0  0.45833  0.29167  0.66667  1.0000
  Cu  Cu100     1.0  0.45833  0.41667  0.66667  1.0000
  Cu  Cu101     1.0  0.33333  0.16667  0.66667  1.0000
  Cu  Cu102     1.0  0.50000  0.87500  1.00000  1.0000
  Cu  Cu103     1.0  0.62500  0.87500  0.00000  1.0000
  Cu  Cu104     1.0  0.50000  0.75000  0.00000  1.0000
  Cu  Cu105     1.0  0.41667  0.70833  0.33333  1.0000
  Cu  Cu106     1.0  0.54167  0.70833  0.33333  1.0000
  Cu  Cu107     1.0  0.54167  0.83333  0.33333  1.0000
  Cu  Cu108     1.0  0.41667  0.58333  0.33333  1.0000
  Cu  Cu109     1.0  0.33333  0.54167  0.66667  1.0000
  Cu  Cu110     1.0  0.45833  0.54167  0.66667  1.0000
  Cu  Cu111     1.0  0.45833  0.66667  0.66667  1.0000
  Cu  Cu112     1.0  0.33333  0.41667  0.66667  1.0000
  Cu  Cu113     1.0  0.41667  0.95833  0.33333  1.0000
  Cu  Cu114     1.0  0.54167  0.95833  0.33333  1.0000
  Cu  Cu115     1.0  0.41667  0.83333  0.33333  1.0000
  Cu  Cu116     1.0  0.33333  0.79167  0.66667  1.0000
  Cu  Cu117     1.0  0.45833  0.79167  0.66667  1.0000
  Cu  Cu118     1.0  0.45833  0.91667  0.66667  1.0000
  Cu  Cu119     1.0  0.33333  0.66667  0.66667  1.0000
  Cu  Cu120     1.0  0.33333  0.91667  0.66667  1.0000
  Cu  Cu121     1.0  0.87500  0.00000  0.00000  1.0000
  Cu  Cu122     1.0  0.75000  0.12500  0.00000  1.0000
  Cu  Cu123     1.0  0.87500  0.12500  0.00000  1.0000
  Cu  Cu124     1.0  0.87500  0.25000  0.00000  1.0000
  Cu  Cu125     1.0  0.75000  0.00000  0.00000  1.0000
  Cu  Cu126     1.0  0.79167  0.08333  0.33333  1.0000
  Cu  Cu127     1.0  0.75000  0.37500  0.00000  1.0000
  Cu  Cu128     1.0  0.87500  0.37500  0.00000  1.0000
  Cu  Cu129     1.0  0.87500  0.50000  0.00000  1.0000
  Cu  Cu130     1.0  0.75000  0.25000  0.00000  1.0000
  Cu  Cu131     1.0  0.66667  0.20833  0.33333  1.0000
  Cu  Cu132     1.0  0.79167  0.20833  0.33333  1.0000
  Cu  Cu133     1.0  0.79167  0.33333  0.33333  1.0000
  Cu  Cu134     1.0  0.66667  0.08333  0.33333  1.0000
  Cu  Cu135     1.0  0.58333  0.04167  0.66667  1.0000
  Cu  Cu136     1.0  0.70833  0.04167  0.66667  1.0000
  Cu  Cu137     1.0  0.70833  0.16667  0.66667  1.0000
  Cu  Cu138     1.0  0.75000  0.62500  0.00000  1.0000
  Cu  Cu139     1.0  0.87500  0.62500  0.00000  1.0000
  Cu  Cu140     1.0  0.87500  0.75000  0.00000  1.0000
  Cu  Cu141     1.0  0.75000  0.50000  0.00000  1.0000
  Cu  Cu142     1.0  0.66667  0.45833  0.33333  1.0000
  Cu  Cu143     1.0  0.79167  0.45833  0.33333  1.0000
  Cu  Cu144     1.0  0.79167  0.58333  0.33333  1.0000
  Cu  Cu145     1.0  0.66667  0.33333  0.33333  1.0000
  Cu  Cu146     1.0  0.58333  0.29167  0.66667  1.0000
  Cu  Cu147     1.0  0.70833  0.29167  0.66667  1.0000
  Cu  Cu148     1.0  0.70833  0.41667  0.66667  1.0000
  Cu  Cu149     1.0  0.58333  0.16667  0.66667  1.0000
  Cu  Cu150     1.0  0.75000  0.87500  0.00000  1.0000
  Cu  Cu151     1.0  0.87500  0.87500  0.00000  1.0000
  Cu  Cu152     1.0  0.75000  0.75000  0.00000  1.0000
  Cu  Cu153     1.0  0.66667  0.70833  0.33333  1.0000
  Cu  Cu154     1.0  0.79167  0.70833  0.33333  1.0000
  Cu  Cu155     1.0  0.79167  0.83333  0.33333  1.0000
  Cu  Cu156     1.0  0.66667  0.58333  0.33333  1.0000
  Cu  Cu157     1.0  0.58333  0.54167  0.66667  1.0000
  Cu  Cu158     1.0  0.70833  0.54167  0.66667  1.0000
  Cu  Cu159     1.0  0.70833  0.66667  0.66667  1.0000
  Cu  Cu160     1.0  0.58333  0.41667  0.66667  1.0000
  Cu  Cu161     1.0  0.66667  0.95833  0.33333  1.0000
  Cu  Cu162     1.0  0.79167  0.95833  0.33333  1.0000
  Cu  Cu163     1.0  0.66667  0.83333  0.33333  1.0000
  Cu  Cu164     1.0  0.58333  0.79167  0.66667  1.0000
  Cu  Cu165     1.0  0.70833  0.79167  0.66667  1.0000
  Cu  Cu166     1.0  0.70833  0.91667  0.66667  1.0000
  Cu  Cu167     1.0  0.58333  0.66667  0.66667  1.0000
  Cu  Cu168     1.0  0.58333  0.91667  0.66667  1.0000
  Cu  Cu169     1.0  0.91667  0.20833  0.33333  1.0000
  Cu  Cu170     1.0  0.91667  0.08333  0.33333  1.0000
  Cu  Cu171     1.0  0.83333  0.04167  0.66667  1.0000
  Cu  Cu172     1.0  0.95833  0.04167  0.66667  1.0000
  Cu  Cu173     1.0  0.95833  0.16667  0.66667  1.0000
  Cu  Cu174     1.0  0.91667  0.45833  0.33333  1.0000
  Cu  Cu175     1.0  0.91667  0.33333  0.33333  1.0000
  Cu  Cu176     1.0  0.83333  0.29167  0.66667  1.0000
  Cu  Cu177     1.0  0.95833  0.29167  0.66667  1.0000
  Cu  Cu178     1.0  0.95833  0.41667  0.66667  1.0000
  Cu  Cu179     1.0  0.83333  0.16667  0.66667  1.0000
  Cu  Cu180     1.0  0.91667  0.70833  0.33333  1.0000
  Cu  Cu181     1.0  0.91667  0.58333  0.33333  1.0000
  Cu  Cu182     1.0  0.83333  0.54167  0.66667  1.0000
  Cu  Cu183     1.0  0.95833  0.54167  0.66667  1.0000
  Cu  Cu184     1.0  0.95833  0.66667  0.66667  1.0000
  Cu  Cu185     1.0  0.83333  0.41667  0.66667  1.0000
  Cu  Cu186     1.0  0.91667  0.95833  0.33333  1.0000
  Cu  Cu187     1.0  0.91667  0.83333  0.33333  1.0000
  Cu  Cu188     1.0  0.83333  0.79167  0.66667  1.0000
  Cu  Cu189     1.0  0.95833  0.79167  0.66667  1.0000
  Cu  Cu190     1.0  0.95833  0.91667  0.66667  1.0000
  Cu  Cu191     1.0  0.83333  0.66667  0.66667  1.0000
  Cu  Cu192     1.0  0.83333  0.91667  0.66667  1.0000
