data_image0
_chemical_formula_structural       Cu288H4IC6HCu11
_chemical_formula_sum              "Cu299 H5 I1 C6"
_cell_length_a       30.6319
_cell_length_b       20.4212
_cell_length_c       68.3369
_cell_angle_alpha    90
_cell_angle_beta     90
_cell_angle_gamma    60

_space_group_name_H-M_alt    "P 1"
_space_group_IT_number       1

loop_
  _space_group_symop_operation_xyz
  'x, y, z'

loop_
  _atom_site_type_symbol
  _atom_site_label
  _atom_site_symmetry_multiplicity
  _atom_site_fract_x
  _atom_site_fract_y
  _atom_site_fract_z
  _atom_site_occupancy
  Cu  Cu1       1.0  0.02778  0.04167  0.21950  1.0000
  Cu  Cu2       1.0  0.11111  0.04167  0.21950  1.0000
  Cu  Cu3       1.0  0.19444  0.04167  0.21950  1.0000
  Cu  Cu4       1.0  0.27778  0.04167  0.21950  1.0000
  Cu  Cu5       1.0  0.36111  0.04167  0.21950  1.0000
  Cu  Cu6       1.0  0.44444  0.04167  0.21950  1.0000
  Cu  Cu7       1.0  0.52778  0.04167  0.21950  1.0000
  Cu  Cu8       1.0  0.61111  0.04167  0.21950  1.0000
  Cu  Cu9       1.0  0.69444  0.04167  0.21950  1.0000
  Cu  Cu10      1.0  0.77778  0.04167  0.21950  1.0000
  Cu  Cu11      1.0  0.86111  0.04167  0.21950  1.0000
  Cu  Cu12      1.0  0.94444  0.04167  0.21950  1.0000
  Cu  Cu13      1.0  0.02778  0.16667  0.21950  1.0000
  Cu  Cu14      1.0  0.11111  0.16667  0.21950  1.0000
  Cu  Cu15      1.0  0.19444  0.16667  0.21950  1.0000
  Cu  Cu16      1.0  0.27778  0.16667  0.21950  1.0000
  Cu  Cu17      1.0  0.36111  0.16667  0.21950  1.0000
  Cu  Cu18      1.0  0.44444  0.16667  0.21950  1.0000
  Cu  Cu19      1.0  0.52778  0.16667  0.21950  1.0000
  Cu  Cu20      1.0  0.61111  0.16667  0.21950  1.0000
  Cu  Cu21      1.0  0.69444  0.16667  0.21950  1.0000
  Cu  Cu22      1.0  0.77778  0.16667  0.21950  1.0000
  Cu  Cu23      1.0  0.86111  0.16667  0.21950  1.0000
  Cu  Cu24      1.0  0.94444  0.16667  0.21950  1.0000
  Cu  Cu25      1.0  0.02778  0.29167  0.21950  1.0000
  Cu  Cu26      1.0  0.11111  0.29167  0.21950  1.0000
  Cu  Cu27      1.0  0.19444  0.29167  0.21950  1.0000
  Cu  Cu28      1.0  0.27778  0.29167  0.21950  1.0000
  Cu  Cu29      1.0  0.36111  0.29167  0.21950  1.0000
  Cu  Cu30      1.0  0.44444  0.29167  0.21950  1.0000
  Cu  Cu31      1.0  0.52778  0.29167  0.21950  1.0000
  Cu  Cu32      1.0  0.61111  0.29167  0.21950  1.0000
  Cu  Cu33      1.0  0.69444  0.29167  0.21950  1.0000
  Cu  Cu34      1.0  0.77778  0.29167  0.21950  1.0000
  Cu  Cu35      1.0  0.86111  0.29167  0.21950  1.0000
  Cu  Cu36      1.0  0.94444  0.29167  0.21950  1.0000
  Cu  Cu37      1.0  0.02778  0.41667  0.21950  1.0000
  Cu  Cu38      1.0  0.11111  0.41667  0.21950  1.0000
  Cu  Cu39      1.0  0.19444  0.41667  0.21950  1.0000
  Cu  Cu40      1.0  0.27778  0.41667  0.21950  1.0000
  Cu  Cu41      1.0  0.36111  0.41667  0.21950  1.0000
  Cu  Cu42      1.0  0.44444  0.41667  0.21950  1.0000
  Cu  Cu43      1.0  0.52778  0.41667  0.21950  1.0000
  Cu  Cu44      1.0  0.61111  0.41667  0.21950  1.0000
  Cu  Cu45      1.0  0.69444  0.41667  0.21950  1.0000
  Cu  Cu46      1.0  0.77778  0.41667  0.21950  1.0000
  Cu  Cu47      1.0  0.86111  0.41667  0.21950  1.0000
  Cu  Cu48      1.0  0.94444  0.41667  0.21950  1.0000
  Cu  Cu49      1.0  0.02778  0.54167  0.21950  1.0000
  Cu  Cu50      1.0  0.11111  0.54167  0.21950  1.0000
  Cu  Cu51      1.0  0.19444  0.54167  0.21950  1.0000
  Cu  Cu52      1.0  0.27778  0.54167  0.21950  1.0000
  Cu  Cu53      1.0  0.36111  0.54167  0.21950  1.0000
  Cu  Cu54      1.0  0.44444  0.54167  0.21950  1.0000
  Cu  Cu55      1.0  0.52778  0.54167  0.21950  1.0000
  Cu  Cu56      1.0  0.61111  0.54167  0.21950  1.0000
  Cu  Cu57      1.0  0.69444  0.54167  0.21950  1.0000
  Cu  Cu58      1.0  0.77778  0.54167  0.21950  1.0000
  Cu  Cu59      1.0  0.86111  0.54167  0.21950  1.0000
  Cu  Cu60      1.0  0.94444  0.54167  0.21950  1.0000
  Cu  Cu61      1.0  0.02778  0.66667  0.21950  1.0000
  Cu  Cu62      1.0  0.11111  0.66667  0.21950  1.0000
  Cu  Cu63      1.0  0.19444  0.66667  0.21950  1.0000
  Cu  Cu64      1.0  0.27778  0.66667  0.21950  1.0000
  Cu  Cu65      1.0  0.36111  0.66667  0.21950  1.0000
  Cu  Cu66      1.0  0.44444  0.66667  0.21950  1.0000
  Cu  Cu67      1.0  0.52778  0.66667  0.21950  1.0000
  Cu  Cu68      1.0  0.61111  0.66667  0.21950  1.0000
  Cu  Cu69      1.0  0.69444  0.66667  0.21950  1.0000
  Cu  Cu70      1.0  0.77778  0.66667  0.21950  1.0000
  Cu  Cu71      1.0  0.86111  0.66667  0.21950  1.0000
  Cu  Cu72      1.0  0.94444  0.66667  0.21950  1.0000
  Cu  Cu73      1.0  0.02778  0.79167  0.21950  1.0000
  Cu  Cu74      1.0  0.11111  0.79167  0.21950  1.0000
  Cu  Cu75      1.0  0.19444  0.79167  0.21950  1.0000
  Cu  Cu76      1.0  0.27778  0.79167  0.21950  1.0000
  Cu  Cu77      1.0  0.36111  0.79167  0.21950  1.0000
  Cu  Cu78      1.0  0.44444  0.79167  0.21950  1.0000
  Cu  Cu79      1.0  0.52778  0.79167  0.21950  1.0000
  Cu  Cu80      1.0  0.61111  0.79167  0.21950  1.0000
  Cu  Cu81      1.0  0.69444  0.79167  0.21950  1.0000
  Cu  Cu82      1.0  0.77778  0.79167  0.21950  1.0000
  Cu  Cu83      1.0  0.86111  0.79167  0.21950  1.0000
  Cu  Cu84      1.0  0.94444  0.79167  0.21950  1.0000
  Cu  Cu85      1.0  0.02778  0.91667  0.21950  1.0000
  Cu  Cu86      1.0  0.11111  0.91667  0.21950  1.0000
  Cu  Cu87      1.0  0.19444  0.91667  0.21950  1.0000
  Cu  Cu88      1.0  0.27778  0.91667  0.21950  1.0000
  Cu  Cu89      1.0  0.36111  0.91667  0.21950  1.0000
  Cu  Cu90      1.0  0.44444  0.91667  0.21950  1.0000
  Cu  Cu91      1.0  0.52778  0.91667  0.21950  1.0000
  Cu  Cu92      1.0  0.61111  0.91667  0.21950  1.0000
  Cu  Cu93      1.0  0.69444  0.91667  0.21950  1.0000
  Cu  Cu94      1.0  0.77778  0.91667  0.21950  1.0000
  Cu  Cu95      1.0  0.86111  0.91667  0.21950  1.0000
  Cu  Cu96      1.0  0.94444  0.91667  0.21950  1.0000
  Cu  Cu97      1.0  0.97222  0.08333  0.25000  1.0000
  Cu  Cu98      1.0  0.05556  0.08333  0.25000  1.0000
  Cu  Cu99      1.0  0.13889  0.08333  0.25000  1.0000
  Cu  Cu100     1.0  0.22222  0.08333  0.25000  1.0000
  Cu  Cu101     1.0  0.30556  0.08333  0.25000  1.0000
  Cu  Cu102     1.0  0.38889  0.08333  0.25000  1.0000
  Cu  Cu103     1.0  0.47222  0.08333  0.25000  1.0000
  Cu  Cu104     1.0  0.55556  0.08333  0.25000  1.0000
  Cu  Cu105     1.0  0.63889  0.08333  0.25000  1.0000
  Cu  Cu106     1.0  0.72222  0.08333  0.25000  1.0000
  Cu  Cu107     1.0  0.80556  0.08333  0.25000  1.0000
  Cu  Cu108     1.0  0.88889  0.08333  0.25000  1.0000
  Cu  Cu109     1.0  0.97222  0.20833  0.25000  1.0000
  Cu  Cu110     1.0  0.05556  0.20833  0.25000  1.0000
  Cu  Cu111     1.0  0.13889  0.20833  0.25000  1.0000
  Cu  Cu112     1.0  0.22222  0.20833  0.25000  1.0000
  Cu  Cu113     1.0  0.30556  0.20833  0.25000  1.0000
  Cu  Cu114     1.0  0.38889  0.20833  0.25000  1.0000
  Cu  Cu115     1.0  0.47222  0.20833  0.25000  1.0000
  Cu  Cu116     1.0  0.55556  0.20833  0.25000  1.0000
  Cu  Cu117     1.0  0.63889  0.20833  0.25000  1.0000
  Cu  Cu118     1.0  0.72222  0.20833  0.25000  1.0000
  Cu  Cu119     1.0  0.80556  0.20833  0.25000  1.0000
  Cu  Cu120     1.0  0.88889  0.20833  0.25000  1.0000
  Cu  Cu121     1.0  0.97222  0.33333  0.25000  1.0000
  Cu  Cu122     1.0  0.05556  0.33333  0.25000  1.0000
  Cu  Cu123     1.0  0.13889  0.33333  0.25000  1.0000
  Cu  Cu124     1.0  0.22222  0.33333  0.25000  1.0000
  Cu  Cu125     1.0  0.30556  0.33333  0.25000  1.0000
  Cu  Cu126     1.0  0.38889  0.33333  0.25000  1.0000
  Cu  Cu127     1.0  0.47222  0.33333  0.25000  1.0000
  Cu  Cu128     1.0  0.55556  0.33333  0.25000  1.0000
  Cu  Cu129     1.0  0.63889  0.33333  0.25000  1.0000
  Cu  Cu130     1.0  0.72222  0.33333  0.25000  1.0000
  Cu  Cu131     1.0  0.80556  0.33333  0.25000  1.0000
  Cu  Cu132     1.0  0.88889  0.33333  0.25000  1.0000
  Cu  Cu133     1.0  0.97222  0.45833  0.25000  1.0000
  Cu  Cu134     1.0  0.05556  0.45833  0.25000  1.0000
  Cu  Cu135     1.0  0.13889  0.45833  0.25000  1.0000
  Cu  Cu136     1.0  0.22222  0.45833  0.25000  1.0000
  Cu  Cu137     1.0  0.30556  0.45833  0.25000  1.0000
  Cu  Cu138     1.0  0.38889  0.45833  0.25000  1.0000
  Cu  Cu139     1.0  0.47222  0.45833  0.25000  1.0000
  Cu  Cu140     1.0  0.55556  0.45833  0.25000  1.0000
  Cu  Cu141     1.0  0.63889  0.45833  0.25000  1.0000
  Cu  Cu142     1.0  0.72222  0.45833  0.25000  1.0000
  Cu  Cu143     1.0  0.80556  0.45833  0.25000  1.0000
  Cu  Cu144     1.0  0.88889  0.45833  0.25000  1.0000
  Cu  Cu145     1.0  0.97222  0.58333  0.25000  1.0000
  Cu  Cu146     1.0  0.05556  0.58333  0.25000  1.0000
  Cu  Cu147     1.0  0.13889  0.58333  0.25000  1.0000
  Cu  Cu148     1.0  0.22222  0.58333  0.25000  1.0000
  Cu  Cu149     1.0  0.30556  0.58333  0.25000  1.0000
  Cu  Cu150     1.0  0.38889  0.58333  0.25000  1.0000
  Cu  Cu151     1.0  0.47222  0.58333  0.25000  1.0000
  Cu  Cu152     1.0  0.55556  0.58333  0.25000  1.0000
  Cu  Cu153     1.0  0.63889  0.58333  0.25000  1.0000
  Cu  Cu154     1.0  0.72222  0.58333  0.25000  1.0000
  Cu  Cu155     1.0  0.80556  0.58333  0.25000  1.0000
  Cu  Cu156     1.0  0.88889  0.58333  0.25000  1.0000
  Cu  Cu157     1.0  0.97222  0.70833  0.25000  1.0000
  Cu  Cu158     1.0  0.05556  0.70833  0.25000  1.0000
  Cu  Cu159     1.0  0.13889  0.70833  0.25000  1.0000
  Cu  Cu160     1.0  0.22222  0.70833  0.25000  1.0000
  Cu  Cu161     1.0  0.30556  0.70833  0.25000  1.0000
  Cu  Cu162     1.0  0.38889  0.70833  0.25000  1.0000
  Cu  Cu163     1.0  0.47222  0.70833  0.25000  1.0000
  Cu  Cu164     1.0  0.55556  0.70833  0.25000  1.0000
  Cu  Cu165     1.0  0.63889  0.70833  0.25000  1.0000
  Cu  Cu166     1.0  0.72222  0.70833  0.25000  1.0000
  Cu  Cu167     1.0  0.80556  0.70833  0.25000  1.0000
  Cu  Cu168     1.0  0.88889  0.70833  0.25000  1.0000
  Cu  Cu169     1.0  0.97222  0.83333  0.25000  1.0000
  Cu  Cu170     1.0  0.05556  0.83333  0.25000  1.0000
  Cu  Cu171     1.0  0.13889  0.83333  0.25000  1.0000
  Cu  Cu172     1.0  0.22222  0.83333  0.25000  1.0000
  Cu  Cu173     1.0  0.30556  0.83333  0.25000  1.0000
  Cu  Cu174     1.0  0.38889  0.83333  0.25000  1.0000
  Cu  Cu175     1.0  0.47222  0.83333  0.25000  1.0000
  Cu  Cu176     1.0  0.55556  0.83333  0.25000  1.0000
  Cu  Cu177     1.0  0.63889  0.83333  0.25000  1.0000
  Cu  Cu178     1.0  0.72222  0.83333  0.25000  1.0000
  Cu  Cu179     1.0  0.80556  0.83333  0.25000  1.0000
  Cu  Cu180     1.0  0.88889  0.83333  0.25000  1.0000
  Cu  Cu181     1.0  0.97222  0.95833  0.25000  1.0000
  Cu  Cu182     1.0  0.05556  0.95833  0.25000  1.0000
  Cu  Cu183     1.0  0.13889  0.95833  0.25000  1.0000
  Cu  Cu184     1.0  0.22222  0.95833  0.25000  1.0000
  Cu  Cu185     1.0  0.30556  0.95833  0.25000  1.0000
  Cu  Cu186     1.0  0.38889  0.95833  0.25000  1.0000
  Cu  Cu187     1.0  0.47222  0.95833  0.25000  1.0000
  Cu  Cu188     1.0  0.55556  0.95833  0.25000  1.0000
  Cu  Cu189     1.0  0.63889  0.95833  0.25000  1.0000
  Cu  Cu190     1.0  0.72222  0.95833  0.25000  1.0000
  Cu  Cu191     1.0  0.80556  0.95833  0.25000  1.0000
  Cu  Cu192     1.0  0.88889  0.95833  0.25000  1.0000
  Cu  Cu193     1.0  0.00000  0.00000  0.28050  1.0000
  Cu  Cu194     1.0  0.08333  0.00000  0.28050  1.0000
  Cu  Cu195     1.0  0.16667  0.00000  0.28050  1.0000
  Cu  Cu196     1.0  0.25000  0.00000  0.28050  1.0000
  Cu  Cu197     1.0  0.33333  0.00000  0.28050  1.0000
  Cu  Cu198     1.0  0.41667  0.00000  0.28050  1.0000
  Cu  Cu199     1.0  0.50000  0.00000  0.28050  1.0000
  Cu  Cu200     1.0  0.58333  0.00000  0.28050  1.0000
  Cu  Cu201     1.0  0.66667  0.00000  0.28050  1.0000
  Cu  Cu202     1.0  0.75000  0.00000  0.28050  1.0000
  Cu  Cu203     1.0  0.83333  0.00000  0.28050  1.0000
  Cu  Cu204     1.0  0.91667  0.00000  0.28050  1.0000
  Cu  Cu205     1.0  0.00000  0.12500  0.28050  1.0000
  Cu  Cu206     1.0  0.08333  0.12500  0.28050  1.0000
  Cu  Cu207     1.0  0.16667  0.12500  0.28050  1.0000
  Cu  Cu208     1.0  0.25000  0.12500  0.28050  1.0000
  Cu  Cu209     1.0  0.33333  0.12500  0.28050  1.0000
  Cu  Cu210     1.0  0.41667  0.12500  0.28050  1.0000
  Cu  Cu211     1.0  0.50000  0.12500  0.28050  1.0000
  Cu  Cu212     1.0  0.58333  0.12500  0.28050  1.0000
  Cu  Cu213     1.0  0.66667  0.12500  0.28050  1.0000
  Cu  Cu214     1.0  0.75000  0.12500  0.28050  1.0000
  Cu  Cu215     1.0  0.83333  0.12500  0.28050  1.0000
  Cu  Cu216     1.0  0.91667  0.12500  0.28050  1.0000
  Cu  Cu217     1.0  0.00000  0.25000  0.28050  1.0000
  Cu  Cu218     1.0  0.08333  0.25000  0.28050  1.0000
  Cu  Cu219     1.0  0.16667  0.25000  0.28050  1.0000
  Cu  Cu220     1.0  0.25000  0.25000  0.28050  1.0000
  Cu  Cu221     1.0  0.33333  0.25000  0.28050  1.0000
  Cu  Cu222     1.0  0.41667  0.25000  0.28050  1.0000
  Cu  Cu223     1.0  0.50000  0.25000  0.28050  1.0000
  Cu  Cu224     1.0  0.58333  0.25000  0.28050  1.0000
  Cu  Cu225     1.0  0.66667  0.25000  0.28050  1.0000
  Cu  Cu226     1.0  0.75000  0.25000  0.28050  1.0000
  Cu  Cu227     1.0  0.83333  0.25000  0.28050  1.0000
  Cu  Cu228     1.0  0.91667  0.25000  0.28050  1.0000
  Cu  Cu229     1.0  0.00000  0.37500  0.28050  1.0000
  Cu  Cu230     1.0  0.08333  0.37500  0.28050  1.0000
  Cu  Cu231     1.0  0.16667  0.37500  0.28050  1.0000
  Cu  Cu232     1.0  0.25000  0.37500  0.28050  1.0000
  Cu  Cu233     1.0  0.33333  0.37500  0.28050  1.0000
  Cu  Cu234     1.0  0.41667  0.37500  0.28050  1.0000
  Cu  Cu235     1.0  0.50000  0.37500  0.28050  1.0000
  Cu  Cu236     1.0  0.58333  0.37500  0.28050  1.0000
  Cu  Cu237     1.0  0.66667  0.37500  0.28050  1.0000
  Cu  Cu238     1.0  0.75000  0.37500  0.28050  1.0000
  Cu  Cu239     1.0  0.83333  0.37500  0.28050  1.0000
  Cu  Cu240     1.0  0.91667  0.37500  0.28050  1.0000
  Cu  Cu241     1.0  0.00000  0.50000  0.28050  1.0000
  Cu  Cu242     1.0  0.08333  0.50000  0.28050  1.0000
  Cu  Cu243     1.0  0.16667  0.50000  0.28050  1.0000
  Cu  Cu244     1.0  0.25000  0.50000  0.28050  1.0000
  Cu  Cu245     1.0  0.33333  0.50000  0.28050  1.0000
  Cu  Cu246     1.0  0.41667  0.50000  0.28050  1.0000
  Cu  Cu247     1.0  0.50000  0.50000  0.28050  1.0000
  Cu  Cu248     1.0  0.58333  0.50000  0.28050  1.0000
  Cu  Cu249     1.0  0.66667  0.50000  0.28050  1.0000
  Cu  Cu250     1.0  0.75000  0.50000  0.28050  1.0000
  Cu  Cu251     1.0  0.83333  0.50000  0.28050  1.0000
  Cu  Cu252     1.0  0.91667  0.50000  0.28050  1.0000
  Cu  Cu253     1.0  0.00000  0.62500  0.28050  1.0000
  Cu  Cu254     1.0  0.08333  0.62500  0.28050  1.0000
  Cu  Cu255     1.0  0.16667  0.62500  0.28050  1.0000
  Cu  Cu256     1.0  0.25000  0.62500  0.28050  1.0000
  Cu  Cu257     1.0  0.33333  0.62500  0.28050  1.0000
  Cu  Cu258     1.0  0.41667  0.62500  0.28050  1.0000
  Cu  Cu259     1.0  0.50000  0.62500  0.28050  1.0000
  Cu  Cu260     1.0  0.58333  0.62500  0.28050  1.0000
  Cu  Cu261     1.0  0.66667  0.62500  0.28050  1.0000
  Cu  Cu262     1.0  0.75000  0.62500  0.28050  1.0000
  Cu  Cu263     1.0  0.83333  0.62500  0.28050  1.0000
  Cu  Cu264     1.0  0.91667  0.62500  0.28050  1.0000
  Cu  Cu265     1.0  0.00000  0.75000  0.28050  1.0000
  Cu  Cu266     1.0  0.08333  0.75000  0.28050  1.0000
  Cu  Cu267     1.0  0.16667  0.75000  0.28050  1.0000
  Cu  Cu268     1.0  0.25000  0.75000  0.28050  1.0000
  Cu  Cu269     1.0  0.33333  0.75000  0.28050  1.0000
  Cu  Cu270     1.0  0.41667  0.75000  0.28050  1.0000
  Cu  Cu271     1.0  0.50000  0.75000  0.28050  1.0000
  Cu  Cu272     1.0  0.58333  0.75000  0.28050  1.0000
  Cu  Cu273     1.0  0.66667  0.75000  0.28050  1.0000
  Cu  Cu274     1.0  0.75000  0.75000  0.28050  1.0000
  Cu  Cu275     1.0  0.83333  0.75000  0.28050  1.0000
  Cu  Cu276     1.0  0.91667  0.75000  0.28050  1.0000
  Cu  Cu277     1.0  0.00000  0.87500  0.28050  1.0000
  Cu  Cu278     1.0  0.08333  0.87500  0.28050  1.0000
  Cu  Cu279     1.0  0.16667  0.87500  0.28050  1.0000
  Cu  Cu280     1.0  0.25000  0.87500  0.28050  1.0000
  Cu  Cu281     1.0  0.33333  0.87500  0.28050  1.0000
  Cu  Cu282     1.0  0.41667  0.87500  0.28050  1.0000
  Cu  Cu283     1.0  0.50000  0.87500  0.28050  1.0000
  Cu  Cu284     1.0  0.58333  0.87500  0.28050  1.0000
  Cu  Cu285     1.0  0.66667  0.87500  0.28050  1.0000
  Cu  Cu286     1.0  0.75000  0.87500  0.28050  1.0000
  Cu  Cu287     1.0  0.83333  0.87500  0.28050  1.0000
  Cu  Cu288     1.0  0.91667  0.87500  0.28050  1.0000
  H   H1        1.0  0.43684  0.45235  0.32220  1.0000
  H   H2        1.0  0.59400  0.31122  0.33201  1.0000
  H   H3        1.0  0.60685  0.41713  0.32474  1.0000
  H   H4        1.0  0.53515  0.54045  0.31622  1.0000
  I   I1        1.0  0.50309  0.28249  0.33393  1.0000
  C   C1        1.0  0.48257  0.50211  0.31882  1.0000
  C   C2        1.0  0.47532  0.44387  0.32282  1.0000
  C   C3        1.0  0.51472  0.37619  0.32749  1.0000
  C   C4        1.0  0.56138  0.36658  0.32819  1.0000
  C   C5        1.0  0.56858  0.42487  0.32418  1.0000
  C   C6        1.0  0.52919  0.49261  0.31950  1.0000
  H   H5        1.0  0.45028  0.55775  0.31498  1.0000
  Cu  Cu289     1.0  0.50718  0.51381  0.40715  1.0000
  Cu  Cu290     1.0  0.46872  0.47867  0.43672  1.0000
  Cu  Cu291     1.0  0.55206  0.47867  0.43672  1.0000
  Cu  Cu292     1.0  0.46872  0.60367  0.43672  1.0000
  Cu  Cu293     1.0  0.49650  0.39533  0.46722  1.0000
  Cu  Cu294     1.0  0.57984  0.39533  0.46722  1.0000
  Cu  Cu295     1.0  0.41317  0.52033  0.46722  1.0000
  Cu  Cu296     1.0  0.49650  0.52033  0.46722  1.0000
  Cu  Cu297     1.0  0.57984  0.52033  0.46722  1.0000
  Cu  Cu298     1.0  0.41317  0.64533  0.46722  1.0000
  Cu  Cu299     1.0  0.49650  0.64533  0.46722  1.0000
